LAMMPS (3 Aug 2023 - Development - )
#-------------------------------------------------------------------------------
# Example LAMMPS script for running a Lennard-Jones molecular dynamics
# simulation at constant volume with the NVE ensemble. The system is
# equilibrated with the NVT ensemble and then time-integrated with NVE.
#-------------------------------------------------------------------------------

#===============================================================================
# Setup the simulation
#===============================================================================

#-----------------------------------------
#  define units for parameters and output
#-----------------------------------------
units       lj

#---------------------------------------
#  specify periodic boundary conditions
#---------------------------------------
boundary p p p

# define atom_style
# full covers everything
# atom_style full

#----------------------------------------------------------------
#  define simulation volume
#  If I want N = 512 atoms
#  and I want a density of rho = 0.5 atoms/lj-sigma^3
#  Then I can determine the size of a cube by
#  size = (N/rho)^(1/3)
#----------------------------------------------------------------
variable side      equal 14
region      boxid block 0.0 14 0.0 14 0.0 14
create_box  1 boxid
Created orthogonal box = (0 0 0) to (14 14 14)

#-------------------------------------------------------------------------------
#  specify initial positions of atoms
#  sc = simple cubic
#  0.5 = density in lj units
#-------------------------------------------------------------------------------
lattice     sc 0.75
Lattice spacing in x,y,z = 1.1006424 1.1006424 1.1006424

#-------------------------------------------------------------------------------
#  place atoms of type 1 in boxid
#-------------------------------------------------------------------------------
create_atoms    1 box
Created 2197 atoms

#-------------------------------------------------------------------------------
#   define mass of atom type 1 (m/m =1 in reduced units)
#-------------------------------------------------------------------------------
mass        1 1.0

#-------------------------------------------------------------------------------
#  specify initial velocity of atoms
#  group = all
#  reduced temperature is T = 1.0 = lj-eps/kb
#  seed for random number generator
#  distribution is gaussian (e.g. Maxwell-Boltzmann)
#-------------------------------------------------------------------------------
velocity    all create 2.00 87287 dist gaussian

#-------------------------------------------------------------------------------
#  specify interaction potential
#  pairwise interaction via the Lennard-Jones potential with a cut-off at 2.5 lj-sigma
#-------------------------------------------------------------------------------
pair_style  lj/cut 2.5

#-------------------------------------------------------------------------------
#  specify parameters between atoms of type 1 with an atom of type 1
#  epsilon = 1.0, sigma = 1.0, cutoff = 2.5 in reduced units
#-------------------------------------------------------------------------------
pair_coeff  1 1 1.0 1.0 2.5

#-------------------------------------------------------------------------------
# add long-range tail correction
#-------------------------------------------------------------------------------
pair_modify tail yes

#-------------------------------------------------------------------------------
#  specify parameters for neighbor list
#  rnbr = rcut + 0.3
#-------------------------------------------------------------------------------
neighbor    0.3 bin

#-------------------------------------------------------------------------------
#  specify thermodynamic properties to be output
#  pe = potential energy
#  ke = kinetic energy
#  etotal = pe + ke
#  temp = temperature
#  press = pressure
#  density = number density
#  output every thousand steps
#  norm = normalize by # of atoms (yes or no)
#-------------------------------------------------------------------------------
#thermo_style custom step pe ke etotal temp press

#-------------------------------------------------------------------------------
# report instantaneous thermo values every 10 steps
#-------------------------------------------------------------------------------
thermo 10

#-------------------------------------------------------------------------------
# normalize thermo properties by number of atoms (yes or no)
#-------------------------------------------------------------------------------
thermo_modify norm yes

#-------------------
#  define time step
#-------------------
timestep 0.005

#===============================================================================
# System equilibration
#===============================================================================

#------------------------------------------------
#  specify NVE ensemble for all atoms and ID = 1
#------------------------------------------------
fix     1 all nve

#--------------------------------------------------------------
# run 1000 steps in the NVE ensemble to equilibrate positions
#--------------------------------------------------------------
run 1000
Generated 0 of 0 mixed pair_coeff terms from geometric mixing rule
Step          Temp          E_pair         E_mol          TotEng         Press
0   2              5.5678596      0              8.5664941      40.67324
Averages over the last 51 of 101 rows, steps 500 to 1000:
Temp E_pair E_mol TotEng Press
6.8368 -1.99335 0 8.25718 20.3906
Loop time of 1.6219 on 1 procs for 1000 steps with 2197 atoms

#------------------------------------------------
#  stop fix (ID 1) to change the thermostat
#------------------------------------------------
unfix 1

#--------------------------------------------------------------
# Specify NVT ensemble to set a desired temperature and ID = 2
#--------------------------------------------------------------
#  ensemble = nvt (Nose-Hoover)
#  temp = temperature
#  initial temperature = 1.0
#  final temperature = 1.0
#  thermostat controller gain = 0.1 (units of time, bigger is less tight control)
#--------------------------------------------------------------
fix     2 all nvt temp 2.00 2.00 0.1

#--------------------------------------------------------------
# run 1000 steps in the NVT ensemble to equilibrate thermostat
#--------------------------------------------------------------
run     1000
Generated 0 of 0 mixed pair_coeff terms from geometric mixing rule
Step          Temp          E_pair         E_mol          TotEng         Press
1000   6.7975299     -1.9363321      0              8.2553217      20.605611
Averages over the last 51 of 101 rows, steps 1500 to 2000:
Temp E_pair E_mol TotEng Press
2.00142 -4.76256 0 -1.7618 5.28314
Loop time of 1.21765 on 1 procs for 1000 steps with 2197 atoms

#===============================================================================
# Production phase
#===============================================================================
variable          tm    equal step
variable          Et    equal etotal
variable          Ep    equal pe
variable          Ek    equal ke
variable          tmp   equal temp
variable          pr    equal press

#--------------------------------------------------------------
# reset thermostat to NVE and run a larger number of steps
#--------------------------------------------------------------
unfix 2
fix 3 all nve

#-----------------------------------
#   save configurations
#   dumpid = 1
#   all atoms
#   atomic symbol is Ar
#   save positions every 100 steps
#   filename = output.xyz
#
#----------------------------------
#dump 1 all xyz 100 output.xyz
#dump_modify 1 element Ar

#------------------------------------------
# run 10000 more steps in the NVT ensemble
#------------------------------------------
run     10000
Generated 0 of 0 mixed pair_coeff terms from geometric mixing rule
Step          Temp          E_pair         E_mol          TotEng         Press
2000   2.0126008     -4.7043032      0             -1.6867761      5.5631873
Averages over the last 501 of 1001 rows, steps 7000 to 12000:
Temp E_pair E_mol TotEng Press
2.03154 -4.73366 0 -1.68773 5.4271
Loop time of 16.0055 on 1 procs for 10000 steps with 2197 atoms
