LAMMPS (3 Aug 2023 - Development - )
#-------------------------------------------------------------------------------
# Example LAMMPS script for running a Lennard-Jones molecular dynamics
# simulation at constant volume with the NVE ensemble. The system is
# equilibrated with the NVT ensemble and then time-integrated with NVE.
#-------------------------------------------------------------------------------

#===============================================================================
# Setup the simulation
#===============================================================================

#-----------------------------------------
#  define units for parameters and output
#-----------------------------------------
units       lj

#---------------------------------------
#  specify periodic boundary conditions
#---------------------------------------
boundary p p p

# define atom_style
# full covers everything
# atom_style full

#----------------------------------------------------------------
#  define simulation volume
#  If I want N = 512 atoms
#  and I want a density of rho = 0.5 atoms/lj-sigma^3
#  Then I can determine the size of a cube by
#  size = (N/rho)^(1/3)
#----------------------------------------------------------------
variable side      equal 10.0793684
region      boxid block 0.0 10.0793684 0.0 10.0793684 0.0 10.0793684
create_box  1 boxid
Created orthogonal box = (0 0 0) to (10.079368 10.079368 10.079368)

#-------------------------------------------------------------------------------
#  specify initial positions of atoms
#  sc = simple cubic
#  0.5 = density in lj units
#-------------------------------------------------------------------------------
lattice     sc 0.50
Lattice spacing in x,y,z = 1.259921 1.259921 1.259921

#-------------------------------------------------------------------------------
#  place atoms of type 1 in boxid
#-------------------------------------------------------------------------------
create_atoms    1 box
Created 512 atoms

#-------------------------------------------------------------------------------
#   define mass of atom type 1 (m/m =1 in reduced units)
#-------------------------------------------------------------------------------
mass        1 1.0

#-------------------------------------------------------------------------------
#  specify initial velocity of atoms
#  group = all
#  reduced temperature is T = 1.0 = lj-eps/kb
#  seed for random number generator
#  distribution is gaussian (e.g. Maxwell-Boltzmann)
#-------------------------------------------------------------------------------
velocity    all create 1.0 87287 dist gaussian

#-------------------------------------------------------------------------------
#  specify interaction potential
#  pairwise interaction via the Lennard-Jones potential with a cut-off at 2.5 lj-sigma
#-------------------------------------------------------------------------------
pair_style  lj/cut 2.5

#-------------------------------------------------------------------------------
#  specify parameters between atoms of type 1 with an atom of type 1
#  epsilon = 1.0, sigma = 1.0, cutoff = 2.5 in reduced units
#-------------------------------------------------------------------------------
pair_coeff  1 1 1.0 1.0 2.5

#-------------------------------------------------------------------------------
# add long-range tail correction
#-------------------------------------------------------------------------------
pair_modify tail yes

#-------------------------------------------------------------------------------
#  specify parameters for neighbor list
#  rnbr = rcut + 0.3
#-------------------------------------------------------------------------------
neighbor    0.3 bin

#-------------------------------------------------------------------------------
#  specify thermodynamic properties to be output
#  pe = potential energy
#  ke = kinetic energy
#  etotal = pe + ke
#  temp = temperature
#  press = pressure
#  density = number density
#  output every thousand steps
#  norm = normalize by # of atoms (yes or no)
#-------------------------------------------------------------------------------
#thermo_style custom step pe ke etotal temp press

#-------------------------------------------------------------------------------
# report instantaneous thermo values every 10 steps
#-------------------------------------------------------------------------------
thermo 10

#-------------------------------------------------------------------------------
# normalize thermo properties by number of atoms (yes or no)
#-------------------------------------------------------------------------------
thermo_modify norm yes

#-------------------
#  define time step
#-------------------
timestep 0.005

#===============================================================================
# System equilibration
#===============================================================================

#------------------------------------------------
#  specify NVE ensemble for all atoms and ID = 1
#------------------------------------------------
fix     1 all nve

#--------------------------------------------------------------
# run 1000 steps in the NVE ensemble to equilibrate positions
#--------------------------------------------------------------
run 1000
Generated 0 of 0 mixed pair_coeff terms from geometric mixing rule
Step          Temp          E_pair         E_mol          TotEng         Press
0   1             -3.3910555      0             -1.8939851     -2.1168568
Averages over the last 51 of 101 rows, steps 500 to 1000:
Temp E_pair E_mol TotEng Press
1.06443 -3.54294 0 -1.94942 -0.159617
Loop time of 0.0774782 on 6 procs for 1000 steps with 512 atoms

#------------------------------------------------
#  stop fix (ID 1) to change the thermostat
#------------------------------------------------
unfix 1

#--------------------------------------------------------------
# Specify NVT ensemble to set a desired temperature and ID = 2
#--------------------------------------------------------------
#  ensemble = nvt (Nose-Hoover)
#  temp = temperature
#  initial temperature = 1.0
#  final temperature = 1.0
#  thermostat controller gain = 0.1 (units of time, bigger is less tight control)
#--------------------------------------------------------------
fix     2 all nvt temp 1.0 1.0 0.1

#--------------------------------------------------------------
# run 1000 steps in the NVT ensemble to equilibrate thermostat
#--------------------------------------------------------------
run     1000
Generated 0 of 0 mixed pair_coeff terms from geometric mixing rule
Step          Temp          E_pair         E_mol          TotEng         Press
1000   1.0429149     -3.5091081      0             -1.9477911     -0.21289867
Averages over the last 51 of 101 rows, steps 1500 to 2000:
Temp E_pair E_mol TotEng Press
1.00683 -3.57204 0 -2.06474 -0.243203
Loop time of 0.076671 on 6 procs for 1000 steps with 512 atoms

#===============================================================================
# Production phase
#===============================================================================
variable          tm    equal step
variable          Et    equal etotal
variable          Ep    equal pe
variable          Ek    equal ke
variable          tmp   equal temp
variable          pr    equal press

#--------------------------------------------------------------
# reset thermostat to NVE and run a larger number of steps
#--------------------------------------------------------------
unfix 2
fix 3 all nve

#-----------------------------------
#   save configurations
#   dumpid = 1
#   all atoms
#   atomic symbol is Ar
#   save positions every 100 steps
#   filename = output.xyz
#
#----------------------------------
#dump 1 all xyz 100 output.xyz
#dump_modify 1 element Ar

#------------------------------------------
# run 10000 more steps in the NVT ensemble
#------------------------------------------
run     10000
Generated 0 of 0 mixed pair_coeff terms from geometric mixing rule
Step          Temp          E_pair         E_mol          TotEng         Press
2000   1.0256646     -3.5018767      0             -1.9663846     -0.12953143
Averages over the last 501 of 1001 rows, steps 7000 to 12000:
Temp E_pair E_mol TotEng Press
1.05812 -3.55039 0 -1.96632 -0.183418
Loop time of 0.870398 on 6 procs for 10000 steps with 512 atoms
